PDE 1986  1 26 19 20 51.20  36.8100 -121.2800   7.0 5.3 5.3 CENTRAL CALIFORNIA                      
event name:     012686B        
time shift:      9.0000
half duration:   1.8000
latitude:       37.2400
longitude:    -121.8100
depth:          15.0000
Mrr:      -2.010000e+23
Mtt:      -5.980000e+23
Mpp:       7.990000e+23
Mrt:       0.000000e+00
Mrp:       0.000000e+00
Mtp:       1.327000e+24

 PDE 1986  3 31 11 55 39.80  37.4900 -121.6700   6.0 5.4 5.4 CENTRAL CALIFORNIA                      
event name:     033186A        
time shift:      4.7000
half duration:   2.5000
latitude:       37.7200
longitude:    -121.7200
depth:          15.0000
Mrr:      -4.300000e+23
Mtt:      -6.740000e+23
Mpp:       1.104000e+24
Mrt:       6.140000e+23
Mrp:      -3.540000e+23
Mtp:       3.016000e+24

 PDE 1988  6 13  1 45 36.00  37.3800 -121.7400   9.0 4.9 5.0 CENTRAL CALIFORNIA                      
event name:     061388A        
time shift:      4.2000
half duration:   1.5000
latitude:       37.3800
longitude:    -121.7400
depth:          15.0000
Mrr:       1.270000e+22
Mtt:      -3.864000e+23
Mpp:       3.737000e+23
Mrt:       1.098000e+23
Mrp:       2.260000e+22
Mtp:       1.208000e+23

 PDE 1989 10 18  0  4 15.20  37.0400 -121.8800  19.0 6.6 7.1 CENTRAL CALIFORNIA                      
event name:     101889A        
time shift:      6.1000
half duration:  20.0000
latitude:       37.0600
longitude:    -121.6300
depth:          19.0000
Mrr:       1.284000e+26
Mtt:      -2.516000e+26
Mpp:       1.232000e+26
Mrt:       1.243000e+26
Mrp:      -1.042000e+26
Mtp:       1.080000e+25

 PDEW2007 10 31  3  4 54.80  37.4300 -121.7700  10.0 5.3 5.6 CENTRAL CALIFORNIA                      
event name:     200710310304A  
time shift:      4.5200
half duration:   1.5000
latitude:       37.3700
longitude:    -121.7800
depth:          13.8900
Mrr:      -3.260000e+22
Mtt:      -2.530000e+24
Mpp:       2.560000e+24
Mrt:       2.090000e+23
Mrp:       4.170000e+23
Mtp:       8.360000e+23
